         756
       0   756  21.85600  21.85600  21.85600  90.00000  90.00000  90.00000
La      0.000000000     0.000000000     0.000000000
Ca      0.000000000     2.732000000     2.732000000
Ca      2.732000000     0.000000000     2.732000000
Ca      2.732000000     2.732000000     0.000000000
Ca      0.000000000     0.000000000     5.464000000
Ca      0.000000000     2.732000000     8.196000000
Ca      2.732000000     0.000000000     8.196000000
Ca      2.732000000     2.732000000     5.464000000
Ca      0.000000000     0.000000000    10.928000000
Ca      0.000000000     2.732000000    13.660000000
Ca      2.732000000     0.000000000    13.660000000
La      2.732000000     2.732000000    10.928000000
Ca      0.000000000     0.000000000    16.392000000
Ca      0.000000000     2.732000000    19.124000000
Ca      2.732000000     2.732000000    16.392000000
Ca      0.000000000     5.464000000     0.000000000
Ca      0.000000000     8.196000000     2.732000000
Ca      2.732000000     8.196000000     0.000000000
Ca      0.000000000     5.464000000     5.464000000
La      0.000000000     8.196000000     8.196000000
Ca      2.732000000     5.464000000     8.196000000
Ca      2.732000000     8.196000000     5.464000000
La      0.000000000     5.464000000    10.928000000
Ca      0.000000000     8.196000000    13.660000000
La      2.732000000     5.464000000    13.660000000
Ca      2.732000000     8.196000000    10.928000000
Ca      0.000000000     5.464000000    16.392000000
Ca      0.000000000     8.196000000    19.124000000
Ca      2.732000000     5.464000000    19.124000000
Ca      2.732000000     8.196000000    16.392000000
Ca      0.000000000    10.928000000     0.000000000
Ca      0.000000000    13.660000000     2.732000000
Ca      2.732000000    10.928000000     2.732000000
Ca      2.732000000    13.660000000     0.000000000
Ca      0.000000000    10.928000000     5.464000000
Ca      0.000000000    13.660000000     8.196000000
Ca      2.732000000    10.928000000     8.196000000
Ca      2.732000000    13.660000000     5.464000000
La      0.000000000    10.928000000    10.928000000
Ca      0.000000000    13.660000000    13.660000000
Ca      2.732000000    10.928000000    13.660000000
Ca      2.732000000    13.660000000    10.928000000
Ca      0.000000000    10.928000000    16.392000000
La      0.000000000    13.660000000    19.124000000
Ca      2.732000000    10.928000000    19.124000000
La      0.000000000    16.392000000     0.000000000
Ca      0.000000000    19.124000000     2.732000000
Ca      2.732000000    19.124000000     0.000000000
Ca      0.000000000    16.392000000     5.464000000
Ca      0.000000000    19.124000000     8.196000000
Ca      2.732000000    16.392000000     8.196000000
Ca      2.732000000    19.124000000     5.464000000
Ca      0.000000000    16.392000000    10.928000000
Ca      0.000000000    19.124000000    13.660000000
Ca      2.732000000    16.392000000    13.660000000
Ca      2.732000000    19.124000000    10.928000000
Ca      0.000000000    16.392000000    16.392000000
Ca      0.000000000    19.124000000    19.124000000
Ca      2.732000000    16.392000000    19.124000000
Ca      2.732000000    19.124000000    16.392000000
Ca      5.464000000     0.000000000     0.000000000
La      5.464000000     2.732000000     2.732000000
Ca      8.196000000     0.000000000     2.732000000
Ca      8.196000000     2.732000000     0.000000000
Ca      5.464000000     0.000000000     5.464000000
La      5.464000000     2.732000000     8.196000000
Ca      8.196000000     0.000000000     8.196000000
Ca      8.196000000     2.732000000     5.464000000
Ca      5.464000000     0.000000000    10.928000000
Ca      5.464000000     2.732000000    13.660000000
Ca      8.196000000     0.000000000    13.660000000
Ca      8.196000000     2.732000000    10.928000000
Ca      5.464000000     0.000000000    16.392000000
Ca      5.464000000     2.732000000    19.124000000
Ca      8.196000000     0.000000000    19.124000000
Ca      8.196000000     2.732000000    16.392000000
Ca      5.464000000     5.464000000     0.000000000
Ca      5.464000000     8.196000000     2.732000000
Ca      8.196000000     5.464000000     2.732000000
Ca      8.196000000     8.196000000     0.000000000
Ca      5.464000000     5.464000000     5.464000000
Ca      5.464000000     8.196000000     8.196000000
Ca      8.196000000     8.196000000     5.464000000
Ca      5.464000000     5.464000000    10.928000000
Ca      5.464000000     8.196000000    13.660000000
Ca      8.196000000     5.464000000    13.660000000
Ca      8.196000000     8.196000000    10.928000000
Ca      5.464000000     5.464000000    16.392000000
Ca      5.464000000     8.196000000    19.124000000
Ca      8.196000000     5.464000000    19.124000000
La      8.196000000     8.196000000    16.392000000
La      5.464000000    10.928000000     0.000000000
Ca      5.464000000    13.660000000     2.732000000
Ca      8.196000000    10.928000000     2.732000000
Ca      8.196000000    13.660000000     0.000000000
Ca      5.464000000    10.928000000     5.464000000
La      5.464000000    13.660000000     8.196000000
Ca      8.196000000    10.928000000     8.196000000
Ca      8.196000000    13.660000000     5.464000000
Ca      5.464000000    10.928000000    10.928000000
Ca      5.464000000    13.660000000    13.660000000
Ca      8.196000000    10.928000000    13.660000000
Ca      8.196000000    13.660000000    10.928000000
Ca      5.464000000    10.928000000    16.392000000
Ca      5.464000000    13.660000000    19.124000000
Ca      8.196000000    10.928000000    19.124000000
Ca      8.196000000    13.660000000    16.392000000
Ca      5.464000000    16.392000000     0.000000000
La      5.464000000    19.124000000     2.732000000
Ca      8.196000000    16.392000000     2.732000000
Ca      8.196000000    19.124000000     0.000000000
Ca      5.464000000    16.392000000     5.464000000
Ca      5.464000000    19.124000000     8.196000000
Ca      8.196000000    19.124000000     5.464000000
Ca      5.464000000    16.392000000    10.928000000
Ca      5.464000000    19.124000000    13.660000000
Ca      8.196000000    19.124000000    10.928000000
La      5.464000000    16.392000000    16.392000000
Ca      5.464000000    19.124000000    19.124000000
La      8.196000000    16.392000000    19.124000000
Ca      8.196000000    19.124000000    16.392000000
La     10.928000000     0.000000000     0.000000000
Ca     10.928000000     2.732000000     2.732000000
Ca     13.660000000     0.000000000     2.732000000
Ca     13.660000000     2.732000000     0.000000000
Ca     10.928000000     0.000000000     5.464000000
Ca     10.928000000     2.732000000     8.196000000
Ca     13.660000000     0.000000000     8.196000000
Ca     13.660000000     2.732000000     5.464000000
Ca     10.928000000     0.000000000    10.928000000
Ca     10.928000000     2.732000000    13.660000000
Ca     13.660000000     0.000000000    13.660000000
Ca     13.660000000     2.732000000    10.928000000
Ca     10.928000000     0.000000000    16.392000000
Ca     10.928000000     2.732000000    19.124000000
Ca     13.660000000     0.000000000    19.124000000
Ca     13.660000000     2.732000000    16.392000000
Ca     10.928000000     5.464000000     0.000000000
Ca     10.928000000     8.196000000     2.732000000
Ca     13.660000000     5.464000000     2.732000000
Ca     13.660000000     8.196000000     0.000000000
Ca     10.928000000     5.464000000     5.464000000
Ca     10.928000000     8.196000000     8.196000000
Ca     13.660000000     5.464000000     8.196000000
Ca     13.660000000     8.196000000     5.464000000
Ca     10.928000000     5.464000000    10.928000000
Ca     10.928000000     8.196000000    13.660000000
Ca     13.660000000     5.464000000    13.660000000
Ca     13.660000000     8.196000000    10.928000000
Ca     10.928000000     5.464000000    16.392000000
Ca     10.928000000     8.196000000    19.124000000
La     13.660000000     5.464000000    19.124000000
Ca     10.928000000    10.928000000     0.000000000
Ca     10.928000000    13.660000000     2.732000000
La     13.660000000    10.928000000     2.732000000
Ca     13.660000000    13.660000000     0.000000000
Ca     10.928000000    10.928000000     5.464000000
Ca     10.928000000    13.660000000     8.196000000
Ca     13.660000000    10.928000000     8.196000000
Ca     13.660000000    13.660000000     5.464000000
La     10.928000000    10.928000000    10.928000000
Ca     10.928000000    13.660000000    13.660000000
Ca     13.660000000    10.928000000    13.660000000
Ca     13.660000000    13.660000000    10.928000000
Ca     10.928000000    10.928000000    16.392000000
Ca     10.928000000    13.660000000    19.124000000
Ca     13.660000000    10.928000000    19.124000000
La     13.660000000    13.660000000    16.392000000
Ca     10.928000000    16.392000000     0.000000000
Ca     10.928000000    19.124000000     2.732000000
Ca     13.660000000    16.392000000     2.732000000
Ca     13.660000000    19.124000000     0.000000000
Ca     10.928000000    16.392000000     5.464000000
Ca     13.660000000    16.392000000     8.196000000
Ca     13.660000000    19.124000000     5.464000000
Ca     10.928000000    16.392000000    10.928000000
Ca     10.928000000    19.124000000    13.660000000
Ca     13.660000000    16.392000000    13.660000000
Ca     13.660000000    19.124000000    10.928000000
Ca     10.928000000    16.392000000    16.392000000
Ca     10.928000000    19.124000000    19.124000000
Ca     13.660000000    16.392000000    19.124000000
Ca     13.660000000    19.124000000    16.392000000
Ca     16.392000000     0.000000000     0.000000000
Ca     16.392000000     2.732000000     2.732000000
Ca     19.124000000     0.000000000     2.732000000
Ca     19.124000000     2.732000000     0.000000000
Ca     16.392000000     0.000000000     5.464000000
La     16.392000000     2.732000000     8.196000000
Ca     19.124000000     0.000000000     8.196000000
Ca     19.124000000     2.732000000     5.464000000
Ca     16.392000000     0.000000000    10.928000000
Ca     16.392000000     2.732000000    13.660000000
La     19.124000000     0.000000000    13.660000000
Ca     19.124000000     2.732000000    10.928000000
Ca     16.392000000     0.000000000    16.392000000
Ca     16.392000000     2.732000000    19.124000000
Ca     19.124000000     0.000000000    19.124000000
Ca     19.124000000     2.732000000    16.392000000
Ca     16.392000000     5.464000000     0.000000000
Ca     16.392000000     8.196000000     2.732000000
Ca     19.124000000     5.464000000     2.732000000
Ca     19.124000000     8.196000000     0.000000000
Ca     16.392000000     5.464000000     5.464000000
Ca     16.392000000     8.196000000     8.196000000
Ca     19.124000000     5.464000000     8.196000000
Ca     19.124000000     8.196000000     5.464000000
Ca     16.392000000     5.464000000    10.928000000
Ca     16.392000000     8.196000000    13.660000000
Ca     19.124000000     5.464000000    13.660000000
Ca     16.392000000     5.464000000    16.392000000
Ca     16.392000000     8.196000000    19.124000000
Ca     19.124000000     5.464000000    19.124000000
Ca     19.124000000     8.196000000    16.392000000
Ca     16.392000000    10.928000000     0.000000000
Ca     16.392000000    13.660000000     2.732000000
Ca     19.124000000    10.928000000     2.732000000
Ca     19.124000000    13.660000000     0.000000000
Ca     16.392000000    13.660000000     8.196000000
Ca     19.124000000    13.660000000     5.464000000
Ca     16.392000000    10.928000000    10.928000000
Ca     16.392000000    13.660000000    13.660000000
Ca     19.124000000    10.928000000    13.660000000
La     19.124000000    13.660000000    10.928000000
Ca     16.392000000    10.928000000    16.392000000
Ca     16.392000000    13.660000000    19.124000000
Ca     19.124000000    10.928000000    19.124000000
Ca     19.124000000    13.660000000    16.392000000
Ca     16.392000000    16.392000000     0.000000000
Ca     16.392000000    19.124000000     2.732000000
Ca     19.124000000    16.392000000     2.732000000
Ca     19.124000000    19.124000000     0.000000000
Ca     16.392000000    16.392000000     5.464000000
Ca     16.392000000    19.124000000     8.196000000
Ca     19.124000000    16.392000000     8.196000000
Ca     19.124000000    19.124000000     5.464000000
Ca     16.392000000    16.392000000    10.928000000
Ca     16.392000000    19.124000000    13.660000000
Ca     19.124000000    16.392000000    13.660000000
Ca     19.124000000    19.124000000    10.928000000
Ca     16.392000000    16.392000000    16.392000000
La     16.392000000    19.124000000    19.124000000
Ca     19.124000000    16.392000000    19.124000000
Ca     19.124000000    19.124000000    16.392000000
F       1.366000000     1.366000000     1.366000000
F       4.098000000     4.098000000     1.366000000
F       4.098000000     1.366000000     4.098000000
F       1.366000000     1.366000000     4.098000000
F       4.098000000     4.098000000     4.098000000
F       1.366000000     4.098000000     4.098000000
F       4.098000000     1.366000000     1.366000000
F       1.366000000     4.098000000     1.366000000
F       1.366000000     1.366000000     6.830000000
F       4.098000000     4.098000000     6.830000000
F       4.098000000     1.366000000     9.562000000
F       1.366000000     1.366000000     9.562000000
F       4.098000000     4.098000000     9.562000000
F       1.366000000     4.098000000     9.562000000
F       4.098000000     1.366000000     6.830000000
F       1.366000000     4.098000000     6.830000000
F       1.366000000     1.366000000    12.294000000
F       4.098000000     4.098000000    12.294000000
F       4.098000000     1.366000000    15.026000000
F       1.366000000     1.366000000    15.026000000
F       4.098000000     4.098000000    15.026000000
F       1.366000000     4.098000000    15.026000000
F       4.098000000     1.366000000    12.294000000
F       1.366000000     4.098000000    12.294000000
F       1.366000000     1.366000000    17.758000000
F       4.098000000     4.098000000    17.758000000
F       4.098000000     1.366000000    20.490000000
F       1.366000000     1.366000000    20.490000000
F       4.098000000     4.098000000    20.490000000
F       1.366000000     4.098000000    20.490000000
F       4.098000000     1.366000000    17.758000000
F       1.366000000     4.098000000    17.758000000
F       1.366000000     6.830000000     1.366000000
F       4.098000000     9.562000000     1.366000000
F       4.098000000     6.830000000     4.098000000
F       1.366000000     6.830000000     4.098000000
F       4.098000000     9.562000000     4.098000000
F       1.366000000     9.562000000     4.098000000
F       4.098000000     6.830000000     1.366000000
F       1.366000000     9.562000000     1.366000000
F       1.366000000     6.830000000     6.830000000
F       4.098000000     9.562000000     6.830000000
F       4.098000000     6.830000000     9.562000000
F       1.366000000     6.830000000     9.562000000
F       4.098000000     9.562000000     9.562000000
F       1.366000000     9.562000000     9.562000000
F       4.098000000     6.830000000     6.830000000
F       1.366000000     9.562000000     6.830000000
F       1.366000000     6.830000000    12.294000000
F       4.098000000     9.562000000    12.294000000
F       4.098000000     6.830000000    15.026000000
F       1.366000000     6.830000000    15.026000000
F       4.098000000     9.562000000    15.026000000
F       1.366000000     9.562000000    15.026000000
F       4.098000000     6.830000000    12.294000000
F       1.366000000     9.562000000    12.294000000
F       1.366000000     6.830000000    17.758000000
F       4.098000000     9.562000000    17.758000000
F       4.098000000     6.830000000    20.490000000
F       1.366000000     6.830000000    20.490000000
F       4.098000000     9.562000000    20.490000000
F       1.366000000     9.562000000    20.490000000
F       4.098000000     6.830000000    17.758000000
F       1.366000000     9.562000000    17.758000000
F       1.366000000    12.294000000     1.366000000
F       4.098000000    15.026000000     1.366000000
F       4.098000000    12.294000000     4.098000000
F       1.366000000    12.294000000     4.098000000
F       4.098000000    15.026000000     4.098000000
F       1.366000000    15.026000000     4.098000000
F       4.098000000    12.294000000     1.366000000
F       1.366000000    15.026000000     1.366000000
F       1.366000000    12.294000000     6.830000000
F       4.098000000    15.026000000     6.830000000
F       4.098000000    12.294000000     9.562000000
F       1.366000000    12.294000000     9.562000000
F       4.098000000    15.026000000     9.562000000
F       1.366000000    15.026000000     9.562000000
F       4.098000000    12.294000000     6.830000000
F       1.366000000    15.026000000     6.830000000
F       1.366000000    12.294000000    12.294000000
F       4.098000000    15.026000000    12.294000000
F       4.098000000    12.294000000    15.026000000
F       1.366000000    12.294000000    15.026000000
F       4.098000000    15.026000000    15.026000000
F       1.366000000    15.026000000    15.026000000
F       4.098000000    12.294000000    12.294000000
F       1.366000000    15.026000000    12.294000000
F       1.366000000    12.294000000    17.758000000
F       4.098000000    15.026000000    17.758000000
F       4.098000000    12.294000000    20.490000000
F       1.366000000    12.294000000    20.490000000
F       4.098000000    15.026000000    20.490000000
F       1.366000000    15.026000000    20.490000000
F       4.098000000    12.294000000    17.758000000
F       1.366000000    15.026000000    17.758000000
F       1.366000000    17.758000000     1.366000000
F       4.098000000    20.490000000     1.366000000
F       4.098000000    17.758000000     4.098000000
F       1.366000000    17.758000000     4.098000000
F       4.098000000    20.490000000     4.098000000
F       1.366000000    20.490000000     4.098000000
F       4.098000000    17.758000000     1.366000000
F       1.366000000    20.490000000     1.366000000
F       1.366000000    17.758000000     6.830000000
F       4.098000000    20.490000000     6.830000000
F       4.098000000    17.758000000     9.562000000
F       1.366000000    17.758000000     9.562000000
F       4.098000000    20.490000000     9.562000000
F       1.366000000    20.490000000     9.562000000
F       4.098000000    17.758000000     6.830000000
F       1.366000000    20.490000000     6.830000000
F       1.366000000    17.758000000    12.294000000
F       4.098000000    20.490000000    12.294000000
F       4.098000000    17.758000000    15.026000000
F       1.366000000    17.758000000    15.026000000
F       4.098000000    20.490000000    15.026000000
F       1.366000000    20.490000000    15.026000000
F       4.098000000    17.758000000    12.294000000
F       1.366000000    20.490000000    12.294000000
F       1.366000000    17.758000000    17.758000000
F       4.098000000    20.490000000    17.758000000
F       4.098000000    17.758000000    20.490000000
F       1.366000000    17.758000000    20.490000000
F       4.098000000    20.490000000    20.490000000
F       1.366000000    20.490000000    20.490000000
F       4.098000000    17.758000000    17.758000000
F       1.366000000    20.490000000    17.758000000
F       6.830000000     1.366000000     1.366000000
F       9.562000000     4.098000000     1.366000000
F       9.562000000     1.366000000     4.098000000
F       6.830000000     1.366000000     4.098000000
F       9.562000000     4.098000000     4.098000000
F       6.830000000     4.098000000     4.098000000
F       9.562000000     1.366000000     1.366000000
F       6.830000000     4.098000000     1.366000000
F       6.830000000     1.366000000     6.830000000
F       9.562000000     4.098000000     6.830000000
F       9.562000000     1.366000000     9.562000000
F       6.830000000     1.366000000     9.562000000
F       9.562000000     4.098000000     9.562000000
F       6.830000000     4.098000000     9.562000000
F       9.562000000     1.366000000     6.830000000
F       6.830000000     4.098000000     6.830000000
F       6.830000000     1.366000000    12.294000000
F       9.562000000     4.098000000    12.294000000
F       9.562000000     1.366000000    15.026000000
F       6.830000000     1.366000000    15.026000000
F       9.562000000     4.098000000    15.026000000
F       6.830000000     4.098000000    15.026000000
F       9.562000000     1.366000000    12.294000000
F       6.830000000     4.098000000    12.294000000
F       6.830000000     1.366000000    17.758000000
F       9.562000000     4.098000000    17.758000000
F       9.562000000     1.366000000    20.490000000
F       6.830000000     1.366000000    20.490000000
F       9.562000000     4.098000000    20.490000000
F       6.830000000     4.098000000    20.490000000
F       9.562000000     1.366000000    17.758000000
F       6.830000000     4.098000000    17.758000000
F       6.830000000     6.830000000     1.366000000
F       9.562000000     9.562000000     1.366000000
F       9.562000000     6.830000000     4.098000000
F       6.830000000     6.830000000     4.098000000
F       9.562000000     9.562000000     4.098000000
F       6.830000000     9.562000000     4.098000000
F       9.562000000     6.830000000     1.366000000
F       6.830000000     9.562000000     1.366000000
F       6.830000000     6.830000000     6.830000000
F       9.562000000     9.562000000     6.830000000
F       9.562000000     6.830000000     9.562000000
F       6.830000000     6.830000000     9.562000000
F       9.562000000     9.562000000     9.562000000
F       6.830000000     9.562000000     9.562000000
F       9.562000000     6.830000000     6.830000000
F       6.830000000     9.562000000     6.830000000
F       6.830000000     6.830000000    12.294000000
F       9.562000000     9.562000000    12.294000000
F       9.562000000     6.830000000    15.026000000
F       6.830000000     6.830000000    15.026000000
F       9.562000000     9.562000000    15.026000000
F       6.830000000     9.562000000    15.026000000
F       9.562000000     6.830000000    12.294000000
F       6.830000000     9.562000000    12.294000000
F       6.830000000     6.830000000    17.758000000
F       9.562000000     9.562000000    17.758000000
F       9.562000000     6.830000000    20.490000000
F       6.830000000     6.830000000    20.490000000
F       9.562000000     9.562000000    20.490000000
F       6.830000000     9.562000000    20.490000000
F       9.562000000     6.830000000    17.758000000
F       6.830000000     9.562000000    17.758000000
F       6.830000000    12.294000000     1.366000000
F       9.562000000    15.026000000     1.366000000
F       9.562000000    12.294000000     4.098000000
F       6.830000000    12.294000000     4.098000000
F       9.562000000    15.026000000     4.098000000
F       6.830000000    15.026000000     4.098000000
F       9.562000000    12.294000000     1.366000000
F       6.830000000    15.026000000     1.366000000
F       6.830000000    12.294000000     6.830000000
F       9.562000000    15.026000000     6.830000000
F       9.562000000    12.294000000     9.562000000
F       6.830000000    12.294000000     9.562000000
F       9.562000000    15.026000000     9.562000000
F       6.830000000    15.026000000     9.562000000
F       9.562000000    12.294000000     6.830000000
F       6.830000000    15.026000000     6.830000000
F       6.830000000    12.294000000    12.294000000
F       9.562000000    15.026000000    12.294000000
F       9.562000000    12.294000000    15.026000000
F       6.830000000    12.294000000    15.026000000
F       9.562000000    15.026000000    15.026000000
F       6.830000000    15.026000000    15.026000000
F       9.562000000    12.294000000    12.294000000
F       6.830000000    15.026000000    12.294000000
F       6.830000000    12.294000000    17.758000000
F       9.562000000    15.026000000    17.758000000
F       9.562000000    12.294000000    20.490000000
F       6.830000000    12.294000000    20.490000000
F       9.562000000    15.026000000    20.490000000
F       6.830000000    15.026000000    20.490000000
F       9.562000000    12.294000000    17.758000000
F       6.830000000    15.026000000    17.758000000
F       6.830000000    17.758000000     1.366000000
F       9.562000000    20.490000000     1.366000000
F       9.562000000    17.758000000     4.098000000
F       6.830000000    17.758000000     4.098000000
F       9.562000000    20.490000000     4.098000000
F       6.830000000    20.490000000     4.098000000
F       9.562000000    17.758000000     1.366000000
F       6.830000000    20.490000000     1.366000000
F       6.830000000    17.758000000     6.830000000
F       9.562000000    20.490000000     6.830000000
F       9.562000000    17.758000000     9.562000000
F       6.830000000    17.758000000     9.562000000
F       9.562000000    20.490000000     9.562000000
F       6.830000000    20.490000000     9.562000000
F       9.562000000    17.758000000     6.830000000
F       6.830000000    20.490000000     6.830000000
F       6.830000000    17.758000000    12.294000000
F       9.562000000    20.490000000    12.294000000
F       9.562000000    17.758000000    15.026000000
F       6.830000000    17.758000000    15.026000000
F       9.562000000    20.490000000    15.026000000
F       6.830000000    20.490000000    15.026000000
F       9.562000000    17.758000000    12.294000000
F       6.830000000    20.490000000    12.294000000
F       6.830000000    17.758000000    17.758000000
F       9.562000000    20.490000000    17.758000000
F       9.562000000    17.758000000    20.490000000
F       6.830000000    17.758000000    20.490000000
F       9.562000000    20.490000000    20.490000000
F       6.830000000    20.490000000    20.490000000
F       9.562000000    17.758000000    17.758000000
F       6.830000000    20.490000000    17.758000000
F      12.294000000     1.366000000     1.366000000
F      15.026000000     4.098000000     1.366000000
F      15.026000000     1.366000000     4.098000000
F      12.294000000     1.366000000     4.098000000
F      15.026000000     4.098000000     4.098000000
F      12.294000000     4.098000000     4.098000000
F      15.026000000     1.366000000     1.366000000
F      12.294000000     4.098000000     1.366000000
F      12.294000000     1.366000000     6.830000000
F      15.026000000     4.098000000     6.830000000
F      15.026000000     1.366000000     9.562000000
F      12.294000000     1.366000000     9.562000000
F      15.026000000     4.098000000     9.562000000
F      12.294000000     4.098000000     9.562000000
F      15.026000000     1.366000000     6.830000000
F      12.294000000     4.098000000     6.830000000
F      12.294000000     1.366000000    12.294000000
F      15.026000000     4.098000000    12.294000000
F      15.026000000     1.366000000    15.026000000
F      12.294000000     1.366000000    15.026000000
F      15.026000000     4.098000000    15.026000000
F      12.294000000     4.098000000    15.026000000
F      15.026000000     1.366000000    12.294000000
F      12.294000000     4.098000000    12.294000000
F      12.294000000     1.366000000    17.758000000
F      15.026000000     4.098000000    17.758000000
F      15.026000000     1.366000000    20.490000000
F      12.294000000     1.366000000    20.490000000
F      15.026000000     4.098000000    20.490000000
F      12.294000000     4.098000000    20.490000000
F      15.026000000     1.366000000    17.758000000
F      12.294000000     4.098000000    17.758000000
F      12.294000000     6.830000000     1.366000000
F      15.026000000     9.562000000     1.366000000
F      15.026000000     6.830000000     4.098000000
F      12.294000000     6.830000000     4.098000000
F      15.026000000     9.562000000     4.098000000
F      12.294000000     9.562000000     4.098000000
F      15.026000000     6.830000000     1.366000000
F      12.294000000     9.562000000     1.366000000
F      12.294000000     6.830000000     6.830000000
F      15.026000000     9.562000000     6.830000000
F      15.026000000     6.830000000     9.562000000
F      12.294000000     6.830000000     9.562000000
F      15.026000000     9.562000000     9.562000000
F      12.294000000     9.562000000     9.562000000
F      15.026000000     6.830000000     6.830000000
F      12.294000000     9.562000000     6.830000000
F      12.294000000     6.830000000    12.294000000
F      15.026000000     9.562000000    12.294000000
F      15.026000000     6.830000000    15.026000000
F      12.294000000     6.830000000    15.026000000
F      15.026000000     9.562000000    15.026000000
F      12.294000000     9.562000000    15.026000000
F      15.026000000     6.830000000    12.294000000
F      12.294000000     9.562000000    12.294000000
F      12.294000000     6.830000000    17.758000000
F      15.026000000     9.562000000    17.758000000
F      15.026000000     6.830000000    20.490000000
F      12.294000000     6.830000000    20.490000000
F      15.026000000     9.562000000    20.490000000
F      12.294000000     9.562000000    20.490000000
F      15.026000000     6.830000000    17.758000000
F      12.294000000     9.562000000    17.758000000
F      12.294000000    12.294000000     1.366000000
F      15.026000000    15.026000000     1.366000000
F      15.026000000    12.294000000     4.098000000
F      12.294000000    12.294000000     4.098000000
F      15.026000000    15.026000000     4.098000000
F      12.294000000    15.026000000     4.098000000
F      15.026000000    12.294000000     1.366000000
F      12.294000000    15.026000000     1.366000000
F      12.294000000    12.294000000     6.830000000
F      15.026000000    15.026000000     6.830000000
F      15.026000000    12.294000000     9.562000000
F      12.294000000    12.294000000     9.562000000
F      15.026000000    15.026000000     9.562000000
F      12.294000000    15.026000000     9.562000000
F      15.026000000    12.294000000     6.830000000
F      12.294000000    15.026000000     6.830000000
F      12.294000000    12.294000000    12.294000000
F      15.026000000    15.026000000    12.294000000
F      15.026000000    12.294000000    15.026000000
F      12.294000000    12.294000000    15.026000000
F      15.026000000    15.026000000    15.026000000
F      12.294000000    15.026000000    15.026000000
F      15.026000000    12.294000000    12.294000000
F      12.294000000    15.026000000    12.294000000
F      12.294000000    12.294000000    17.758000000
F      15.026000000    15.026000000    17.758000000
F      15.026000000    12.294000000    20.490000000
F      12.294000000    12.294000000    20.490000000
F      15.026000000    15.026000000    20.490000000
F      12.294000000    15.026000000    20.490000000
F      15.026000000    12.294000000    17.758000000
F      12.294000000    15.026000000    17.758000000
F      12.294000000    17.758000000     1.366000000
F      15.026000000    20.490000000     1.366000000
F      15.026000000    17.758000000     4.098000000
F      12.294000000    17.758000000     4.098000000
F      15.026000000    20.490000000     4.098000000
F      12.294000000    20.490000000     4.098000000
F      15.026000000    17.758000000     1.366000000
F      12.294000000    20.490000000     1.366000000
F      12.294000000    17.758000000     6.830000000
F      15.026000000    20.490000000     6.830000000
F      15.026000000    17.758000000     9.562000000
F      12.294000000    17.758000000     9.562000000
F      15.026000000    20.490000000     9.562000000
F      12.294000000    20.490000000     9.562000000
F      15.026000000    17.758000000     6.830000000
F      12.294000000    20.490000000     6.830000000
F      12.294000000    17.758000000    12.294000000
F      15.026000000    20.490000000    12.294000000
F      15.026000000    17.758000000    15.026000000
F      12.294000000    17.758000000    15.026000000
F      15.026000000    20.490000000    15.026000000
F      12.294000000    20.490000000    15.026000000
F      15.026000000    17.758000000    12.294000000
F      12.294000000    20.490000000    12.294000000
F      12.294000000    17.758000000    17.758000000
F      15.026000000    20.490000000    17.758000000
F      15.026000000    17.758000000    20.490000000
F      12.294000000    17.758000000    20.490000000
F      15.026000000    20.490000000    20.490000000
F      12.294000000    20.490000000    20.490000000
F      15.026000000    17.758000000    17.758000000
F      12.294000000    20.490000000    17.758000000
F      17.758000000     1.366000000     1.366000000
F      20.490000000     4.098000000     1.366000000
F      20.490000000     1.366000000     4.098000000
F      17.758000000     1.366000000     4.098000000
F      20.490000000     4.098000000     4.098000000
F      17.758000000     4.098000000     4.098000000
F      20.490000000     1.366000000     1.366000000
F      17.758000000     4.098000000     1.366000000
F      17.758000000     1.366000000     6.830000000
F      20.490000000     4.098000000     6.830000000
F      20.490000000     1.366000000     9.562000000
F      17.758000000     1.366000000     9.562000000
F      20.490000000     4.098000000     9.562000000
F      17.758000000     4.098000000     9.562000000
F      20.490000000     1.366000000     6.830000000
F      17.758000000     4.098000000     6.830000000
F      17.758000000     1.366000000    12.294000000
F      20.490000000     4.098000000    12.294000000
F      20.490000000     1.366000000    15.026000000
F      17.758000000     1.366000000    15.026000000
F      20.490000000     4.098000000    15.026000000
F      17.758000000     4.098000000    15.026000000
F      20.490000000     1.366000000    12.294000000
F      17.758000000     4.098000000    12.294000000
F      17.758000000     1.366000000    17.758000000
F      20.490000000     4.098000000    17.758000000
F      20.490000000     1.366000000    20.490000000
F      17.758000000     1.366000000    20.490000000
F      20.490000000     4.098000000    20.490000000
F      17.758000000     4.098000000    20.490000000
F      20.490000000     1.366000000    17.758000000
F      17.758000000     4.098000000    17.758000000
F      17.758000000     6.830000000     1.366000000
F      20.490000000     9.562000000     1.366000000
F      20.490000000     6.830000000     4.098000000
F      17.758000000     6.830000000     4.098000000
F      20.490000000     9.562000000     4.098000000
F      17.758000000     9.562000000     4.098000000
F      20.490000000     6.830000000     1.366000000
F      17.758000000     9.562000000     1.366000000
F      17.758000000     6.830000000     6.830000000
F      20.490000000     9.562000000     6.830000000
F      20.490000000     6.830000000     9.562000000
F      17.758000000     6.830000000     9.562000000
F      20.490000000     9.562000000     9.562000000
F      17.758000000     9.562000000     9.562000000
F      20.490000000     6.830000000     6.830000000
F      17.758000000     9.562000000     6.830000000
F      17.758000000     6.830000000    12.294000000
F      20.490000000     9.562000000    12.294000000
F      20.490000000     6.830000000    15.026000000
F      17.758000000     6.830000000    15.026000000
F      20.490000000     9.562000000    15.026000000
F      17.758000000     9.562000000    15.026000000
F      20.490000000     6.830000000    12.294000000
F      17.758000000     9.562000000    12.294000000
F      17.758000000     6.830000000    17.758000000
F      20.490000000     9.562000000    17.758000000
F      20.490000000     6.830000000    20.490000000
F      17.758000000     6.830000000    20.490000000
F      20.490000000     9.562000000    20.490000000
F      17.758000000     9.562000000    20.490000000
F      20.490000000     6.830000000    17.758000000
F      17.758000000     9.562000000    17.758000000
F      17.758000000    12.294000000     1.366000000
F      20.490000000    15.026000000     1.366000000
F      20.490000000    12.294000000     4.098000000
F      17.758000000    12.294000000     4.098000000
F      20.490000000    15.026000000     4.098000000
F      17.758000000    15.026000000     4.098000000
F      20.490000000    12.294000000     1.366000000
F      17.758000000    15.026000000     1.366000000
F      17.758000000    12.294000000     6.830000000
F      20.490000000    15.026000000     6.830000000
F      20.490000000    12.294000000     9.562000000
F      17.758000000    12.294000000     9.562000000
F      20.490000000    15.026000000     9.562000000
F      17.758000000    15.026000000     9.562000000
F      20.490000000    12.294000000     6.830000000
F      17.758000000    15.026000000     6.830000000
F      17.758000000    12.294000000    12.294000000
F      20.490000000    15.026000000    12.294000000
F      20.490000000    12.294000000    15.026000000
F      17.758000000    12.294000000    15.026000000
F      20.490000000    15.026000000    15.026000000
F      17.758000000    15.026000000    15.026000000
F      20.490000000    12.294000000    12.294000000
F      17.758000000    15.026000000    12.294000000
F      17.758000000    12.294000000    17.758000000
F      20.490000000    15.026000000    17.758000000
F      20.490000000    12.294000000    20.490000000
F      17.758000000    12.294000000    20.490000000
F      20.490000000    15.026000000    20.490000000
F      17.758000000    15.026000000    20.490000000
F      20.490000000    12.294000000    17.758000000
F      17.758000000    15.026000000    17.758000000
F      17.758000000    17.758000000     1.366000000
F      20.490000000    20.490000000     1.366000000
F      20.490000000    17.758000000     4.098000000
F      17.758000000    17.758000000     4.098000000
F      20.490000000    20.490000000     4.098000000
F      17.758000000    20.490000000     4.098000000
F      20.490000000    17.758000000     1.366000000
F      17.758000000    20.490000000     1.366000000
F      17.758000000    17.758000000     6.830000000
F      20.490000000    20.490000000     6.830000000
F      20.490000000    17.758000000     9.562000000
F      17.758000000    17.758000000     9.562000000
F      20.490000000    20.490000000     9.562000000
F      17.758000000    20.490000000     9.562000000
F      20.490000000    17.758000000     6.830000000
F      17.758000000    20.490000000     6.830000000
F      17.758000000    17.758000000    12.294000000
F      20.490000000    20.490000000    12.294000000
F      20.490000000    17.758000000    15.026000000
F      17.758000000    17.758000000    15.026000000
F      20.490000000    20.490000000    15.026000000
F      17.758000000    20.490000000    15.026000000
F      20.490000000    17.758000000    12.294000000
F      17.758000000    20.490000000    12.294000000
F      17.758000000    17.758000000    17.758000000
F      20.490000000    20.490000000    17.758000000
F      20.490000000    17.758000000    20.490000000
F      17.758000000    17.758000000    20.490000000
F      20.490000000    20.490000000    20.490000000
F      17.758000000    20.490000000    20.490000000
F      20.490000000    17.758000000    17.758000000
F      17.758000000    20.490000000    17.758000000
